<?xml version="1.0" encoding="UTF-8"?>

<!-- generated on 2024-09-14 20:09:28 by Eclipse SUMO sumo Version 1.19.0
-->

<configuration xmlns:xsi="http://www.w3.org/2001/XMLSchema-instance" xsi:noNamespaceSchemaLocation="http://sumo.dlr.de/xsd/sumoConfiguration.xsd">

    <input>
        <net-file value="osm.net.xml.gz"/>
        <route-files value="highway_bremen.rou_1dir_high.xml"/>
        <additional-files value="osm.poly.xml.gz"/>
    </input>

    <processing>
        <ignore-route-errors value="true"/>
    </processing>

    <routing>
        <device.rerouting.adaptation-steps value="18"/>
        <device.rerouting.adaptation-interval value="10"/>
    </routing>

    <report>
        <verbose value="true"/>
        <duration-log.statistics value="true"/>
        <no-step-log value="true"/>
    </report>

    <gui_only>
        <gui-settings-file value="highway_bremen.view.xml"/>
    </gui_only>

    <time>
        <step-length value="1"/>
    </time>

</configuration>
